file 269606 1608424284                                          
version 2
run VoIP-DL-0-20201220-01:25:29-9149
attr configname VoIP-DL
attr datetime 20201220-01:25:29
attr experiment VoIP-DL
attr inifile omnetpp.ini
attr iterationvars $numUEs=2
attr iterationvarsf numUEs=2-
attr measurement $numUEs=2
attr network lte.simulations.test_mec_2.MecSingleCell2
attr processid 9149
attr repetition 0
attr replication #0
attr resultdir 3ue
attr runnumber 0
attr seedset 0
itervar numUEs 2
param *.ipConfigurator.dumpAddresses true
param **.mac.schedulingDisciplineDl "\"MAXCI\""
param **.mac.schedulingDisciplineUl "\"MAXCI\""
param *.ue[*].numUdpApps 1
param *.numUe 2
param *.server.numUdpApps 2
param **.ue[*].macCellId 1
param **.ue[*].masterId 1
param *.ue[*].mobility.acceleration 0
param *.ue[*].mobility.angle "uniform(0deg, 360deg)"
param *.ue[*].mobility.constraintAreaMaxX 1000m
param *.ue[*].mobility.constraintAreaMaxY 1000m
param *.ue[*].mobility.constraintAreaMinX 0m
param *.ue[*].mobility.constraintAreaMinY 0m
param *.ue[*].mobility.initFromDisplayString false
param *.ue[*].mobility.initialX uniform(0m,600m)
param *.ue[*].mobility.initialY uniform(0m,600m)
param *.eNodeB.mobility.initialX 300m
param *.eNodeB.mobility.initialY 300m
param *.ue[*].mobility.initialZ 0
param *.ue[*].mobility.speed 1mps
param *.ue[*].mobilityType "\"LinearMobility\""
param *.ue[*].udpApp[0].typename "\"VoIPReceiver\""
param *.ue[*].udpApp[0].localPort 3000
param *.ue[*].udpApp[0].serverAddress "\"server\""
param *.server.udpApp[*].PacketSize 40
param *.server.udpApp[*].destAddress "\"ue[\"+string(ancestorIndex(0))+\"]\""
param *.server.udpApp[*].destAddresses "\"\""
param *.server.udpApp[*].destPort 3000
param *.server.udpApp[*].localPort 3088+ancestorIndex(0)
param *.server.udpApp[*].typename "\"VoIPSender\""
param *.server.udpApp[*].startTime uniform(0s,0.02s)
param **.meHost.virtualisationInfrastructure.ext[0].filterString "\"ip and dst host 195.168\""
param **.meHost.virtualisationInfrastructure.ext[0].device "\"lo\""
param **.ext[0].mtu 1500B
param **.coreDebug false
param **.routingRecorder.enabled false
param *.playgroundSizeX 1100m
param *.playgroundSizeY 800m
param *.playgroundSizeZ 50m
param **.channelControl.pMax 10W
param **.channelControl.alpha 1.0
param **.channelControl.carrierFrequency 2100e+6Hz
param *.ue[*].lteNic.phy.dynamicCellAssociation true
param **.ue[*].masterId 1
param **.ue[*].macCellId 1
param **.eNodeB1.macCellId 1
param **.eNodeB1.macNodeId 1
param **.eNodeB2.macCellId 2
param **.eNodeB2.macNodeId 2
param **.rbAllocationType "\"localized\""
param **.feedbackType "\"ALLBANDS\""
param **.feedbackGeneratorType "\"IDEAL\""
param **.maxHarqRtx 3
param **.cellInfo.ruRange 50
param **.cellInfo.ruTxPower "\"50,50,50;\""
param **.cellInfo.antennaCws "\"2;\""
param **.cellInfo.numRbDl 25
param **.cellInfo.numRbUl 25
param **.numBands 25
param *.ue[*].lteNic.phy.enableHandover true
param *.eNodeB*.lteNic.phy.enableHandover true
param *.visualizer.interfaceTableVisualizer.displayInterfaceTables true
param *.visualizer.interfaceTableVisualizer.nodeFilter "\"not (*switch* or *Switch* or *AP*)\""
param **.displayAddresses true
param **.meHost.virtualisationInfrastructure.numTcpApps 1
param **.meHost.virtualisationInfrastructure.tcpApp[0].typename "\"RNIService\""
param **.meHost.virtualisationInfrastructure.tcpApp[0].active true
param **.meHost.virtualisationInfrastructure.tcpApp[0].localAddress "\"195.168.5.1\""
param **.meHost.virtualisationInfrastructure.tcpApp[0].localPort 10020
param **.meHost.virtualisationInfrastructure.tcpApp[*].dataTransferMode "\"bytestream\""
param **.meHost.virtualisationInfrastructure.forwarding true
param **.tcp.advertisedWindow 65535
param **.tcp.delayedAcksEnabled false
param **.tcp.nagleEnabled true
param **.tcp.limitedTransmitEnabled false
param **.tcp.increasedIWEnabled false
param **.tcp.sackSupport true
param **.tcp.windowScalingSupport false
param **.tcp.timestampSupport false
param **.tcp.mss 1452
param **.tcp.tcpAlgorithmClass "\"TCPReno\""
param **.tcp.recordStats true
param **.numPcapRecorders 1
param **.meHost.virtualisationInfrastructure.pcapRecorder[0].pcapFile "\"meHost.pcap\""
param **.eNodeB*.meHost "\"meHost\""
param **.eNodeB*.meHostExtConn "\"192.168.1.0/24\""

vector 0 MecSingleCell2.server.ppp[0].queue queueLength:vector ETV
attr interpolationmode sample-hold
attr title "queue length, vector"
0	17210 8 0 0 0 0 1 0 0 0 0
vector 1 MecSingleCell2.server.ppp[0].ppp txState:vector ETV
attr interpolationmode sample-hold
attr title "tx state, vector"
1	17218 5474 0 17294 0 2.552665419474 225 0 1 112 112
vector 2 MecSingleCell2.router.ppp[0].queue queueLength:vector ETV
attr interpolationmode sample-hold
attr title "queue length, vector"
2	22692 8 0 0 0 0 1 0 0 0 0
vector 3 MecSingleCell2.router.ppp[0].ppp txState:vector ETV
attr interpolationmode sample-hold
attr title "tx state, vector"
3	22700 8 0 0 0 0 1 0 0 0 0
vector 4 MecSingleCell2.router.ppp[1].queue queueLength:vector ETV
attr interpolationmode sample-hold
attr title "queue length, vector"
4	22708 8 0 0 0 0 1 0 0 0 0
vector 5 MecSingleCell2.router.ppp[1].ppp txState:vector ETV
attr interpolationmode sample-hold
attr title "tx state, vector"
5	22716 5474 0 17299 0 2.552665529474 225 0 1 112 112
vector 6 MecSingleCell2.pgw.ppp[0].queue queueLength:vector ETV
attr interpolationmode sample-hold
attr title "queue length, vector"
6	28190 8 0 0 0 0 1 0 0 0 0
vector 7 MecSingleCell2.pgw.ppp[0].ppp txState:vector ETV
attr interpolationmode sample-hold
attr title "tx state, vector"
7	28198 5474 0 17307 0 2.552665661874 225 0 1 112 112
vector 8 MecSingleCell2.pgw.pppInterface.queue queueLength:vector ETV
attr interpolationmode sample-hold
attr title "queue length, vector"
8	33672 8 0 0 0 0 1 0 0 0 0
vector 9 MecSingleCell2.pgw.pppInterface.ppp txState:vector ETV
attr interpolationmode sample-hold
attr title "tx state, vector"
9	33680 8 0 0 0 0 1 0 0 0 0
vector 10 MecSingleCell2.eNB.pppIf.queue queueLength:vector ETV
attr interpolationmode sample-hold
attr title "queue length, vector"
10	33688 9 0 0 0 0 1 0 0 0 0
vector 11 MecSingleCell2.eNB.pppIf.ppp txState:vector ETV
attr interpolationmode sample-hold
attr title "tx state, vector"
11	33697 9 0 0 0 0 1 0 0 0 0
vector 12 MecSingleCell2.eNB.pppMEHostIf.queue queueLength:vector ETV
attr interpolationmode sample-hold
attr title "queue length, vector"
12	33706 9 0 0 0 0 1 0 0 0 0
vector 13 MecSingleCell2.eNB.pppMEHostIf.ppp txState:vector ETV
attr interpolationmode sample-hold
attr title "tx state, vector"
13	33715 9 0 0 0 0 1 0 0 0 0
vector 14 MecSingleCell2.meHost.virtualisationInfrastructure.ppp[0].queue queueLength:vector ETV
attr interpolationmode sample-hold
attr title "queue length, vector"
14	33724 9 0 0 0 0 1 0 0 0 0
vector 15 MecSingleCell2.meHost.virtualisationInfrastructure.ppp[0].ppp txState:vector ETV
attr interpolationmode sample-hold
attr title "tx state, vector"
15	33733 9 0 0 0 0 1 0 0 0 0
vector 16 MecSingleCell2.meHost.gtpEndpoint.ppp[0].queue queueLength:vector ETV
attr interpolationmode sample-hold
attr title "queue length, vector"
16	33742 9 0 0 0 0 1 0 0 0 0
vector 17 MecSingleCell2.meHost.gtpEndpoint.ppp[0].ppp txState:vector ETV
attr interpolationmode sample-hold
attr title "tx state, vector"
17	33751 9 0 0 0 0 1 0 0 0 0
vector 18 MecSingleCell2.meHost.gtpEndpoint.pppInterface.queue queueLength:vector ETV
attr interpolationmode sample-hold
attr title "queue length, vector"
18	33760 9 0 0 0 0 1 0 0 0 0
vector 19 MecSingleCell2.meHost.gtpEndpoint.pppInterface.ppp txState:vector ETV
attr interpolationmode sample-hold
attr title "tx state, vector"
19	33769 9 0 0 0 0 1 0 0 0 0
vector 20 MecSingleCell2.ue[0].lteNic.phy servingCell:vector ETV
attr source servingCell
attr title "ID of the serving eNodeB for the UE, vector"
attr unit ""
20	33778 9 0 0 0 0 1 1 1 1 1
vector 21 MecSingleCell2.eNB.lteNic.mac avgServedBlocksUl:vector ETV
attr source avgServedBlocksUl
attr title "LTE Avg Served Blocks Ul, vector"
attr unit blocks
21	33787 41705 32 17405 0.001 2.568 2568 0 0 0 0
vector 22 MecSingleCell2.eNB.lteNic.mac avgServedBlocksDl:vector ETV
attr source avgServedBlocksDl
attr title "LTE Avg Served Blocks Dl, vector"
attr unit blocks
22	75492 41705 32 17405 0.001 2.568 2568 0 1 113 113
vector 23 MecSingleCell2.eNB.lteNic.mac receivedPacketFromLowerLayer:vector(packetBytes) ETV
attr interpolationmode none
attr source receivedPacketFromLowerLayer
23	117197 8760 40 17390 0.002 2.564 541 0 0 0 0
vector 24 MecSingleCell2.eNB.collector dl_total_prb_usage_cell ETV
24	125957 8105 49 17391 0.005 2.565 513 0 0 0 0
vector 25 MecSingleCell2.eNB.collector ul_total_prb_usage_cell ETV
25	134062 8105 49 17391 0.005 2.565 513 0 0 0 0
vector 26 MecSingleCell2.meHost.virtualisationInfrastructure.tcp "rcvd seq" ETV
26	142167 137 60 7753 0.00681 1.195734 5 3470477931 4149482832 20068407806 8.0917036103413e+19
vector 27 MecSingleCell2.meHost.virtualisationInfrastructure.tcp "rcvd ack" ETV
27	142304 112 60 7753 0.00681 1.195734 5 0 793038 1689936 897051691926
vector 28 MecSingleCell2.server.udpApp[0] voIPGeneratedThroughput:vector ETV
attr source voIPGeneratedThroughput
attr title "Throughput generated by the application, vector"
attr unit Bps
28	142416 4401 112 17289 0.016230369485 2.552665359474 112 1329.5229499028 2464.5156745795 193249.48299246 339065337.08976
vector 29 MecSingleCell2.server.udp sentPk:vector(packetBytes) ETV
attr interpolationmode none
attr source sentPk
attr title "packets sent, vector(packetBytes)"
29	146817 2957 113 17290 0.016230369485 2.552665359474 112 48 48 5376 258048
vector 30 MecSingleCell2.server.ppp[0].queue rcvdPk:vector(packetBytes) ETV
attr interpolationmode none
attr title "received packets, vector(packetBytes)"
30	149774 2957 115 17292 0.016230369485 2.552665359474 112 68 68 7616 517888
vector 31 MecSingleCell2.server.ppp[0].queue queueingTime:vector ETV
attr interpolationmode none
attr title "queueing time, vector"
31	152731 2845 115 17292 0.016230369485 2.552665359474 112 0 0 0 0
vector 32 MecSingleCell2.server.ppp[0].ppp rcvdPkFromHL:vector(packetBytes) ETV
attr interpolationmode none
attr source packetReceivedFromUpper
attr title "packets received from higher layer, vector(packetBytes)"
32	155576 2957 116 17293 0.016230369485 2.552665359474 112 68 68 7616 517888
vector 33 MecSingleCell2.server.ppp[0].ppp txPk:vector(packetBytes) ETV
attr interpolationmode none
attr source packetSentToLower
attr title "packets transmitted, vector(packetBytes)"
33	158533 2957 116 17293 0.016230369485 2.552665359474 112 75 75 8400 630000
vector 34 MecSingleCell2.router.ppp[0].ppp rxPkOk:vector(packetBytes) ETV
attr interpolationmode none
attr source rxPkOk
attr title "packets received OK, vector(packetBytes)"
34	161490 2957 118 17295 0.016230479485 2.552665469474 112 75 75 8400 630000
vector 35 MecSingleCell2.router.ppp[0].ppp passedUpPk:vector(packetBytes) ETV
attr interpolationmode none
attr source packetSentToUpper
attr title "packets passed to higher layer, vector(packetBytes)"
35	164447 2957 118 17295 0.016230479485 2.552665469474 112 68 68 7616 517888
vector 36 MecSingleCell2.router.ppp[1].queue rcvdPk:vector(packetBytes) ETV
attr interpolationmode none
attr title "received packets, vector(packetBytes)"
36	167404 2957 120 17297 0.016230479485 2.552665469474 112 68 68 7616 517888
vector 37 MecSingleCell2.router.ppp[1].queue queueingTime:vector ETV
attr interpolationmode none
attr title "queueing time, vector"
37	170361 2845 120 17297 0.016230479485 2.552665469474 112 0 0 0 0
vector 38 MecSingleCell2.router.ppp[1].ppp rcvdPkFromHL:vector(packetBytes) ETV
attr interpolationmode none
attr source packetReceivedFromUpper
attr title "packets received from higher layer, vector(packetBytes)"
38	173206 2957 121 17298 0.016230479485 2.552665469474 112 68 68 7616 517888
vector 39 MecSingleCell2.router.ppp[1].ppp txPk:vector(packetBytes) ETV
attr interpolationmode none
attr source packetSentToLower
attr title "packets transmitted, vector(packetBytes)"
39	176163 2957 121 17298 0.016230479485 2.552665469474 112 75 75 8400 630000
vector 40 MecSingleCell2.pgw.pppInterface.ppp rxPkOk:vector(packetBytes) ETV
attr interpolationmode none
attr source rxPkOk
attr title "packets received OK, vector(packetBytes)"
40	179120 2957 123 17300 0.016230589485 2.552665579474 112 75 75 8400 630000
vector 41 MecSingleCell2.pgw.pppInterface.ppp passedUpPk:vector(packetBytes) ETV
attr interpolationmode none
attr source packetSentToUpper
attr title "packets passed to higher layer, vector(packetBytes)"
41	182077 2957 123 17300 0.016230589485 2.552665579474 112 68 68 7616 517888
vector 42 MecSingleCell2.pgw.udp sentPk:vector(packetBytes) ETV
attr interpolationmode none
attr source sentPk
attr title "packets sent, vector(packetBytes)"
42	185034 2957 126 17303 0.016230589485 2.552665579474 112 76 76 8512 646912
vector 43 MecSingleCell2.pgw.ppp[0].queue rcvdPk:vector(packetBytes) ETV
attr interpolationmode none
attr title "received packets, vector(packetBytes)"
43	187991 2957 128 17305 0.016230589485 2.552665579474 112 96 96 10752 1032192
vector 44 MecSingleCell2.pgw.ppp[0].queue queueingTime:vector ETV
attr interpolationmode none
attr title "queueing time, vector"
44	190948 2845 128 17305 0.016230589485 2.552665579474 112 0 0 0 0
vector 45 MecSingleCell2.pgw.ppp[0].ppp rcvdPkFromHL:vector(packetBytes) ETV
attr interpolationmode none
attr source packetReceivedFromUpper
attr title "packets received from higher layer, vector(packetBytes)"
45	193793 2957 129 17306 0.016230589485 2.552665579474 112 96 96 10752 1032192
vector 46 MecSingleCell2.pgw.ppp[0].ppp txPk:vector(packetBytes) ETV
attr interpolationmode none
attr source packetSentToLower
attr title "packets transmitted, vector(packetBytes)"
46	196750 3069 129 17306 0.016230589485 2.552665579474 112 103 103 11536 1188208
vector 47 MecSingleCell2.eNB.pppIf.ppp rxPkOk:vector(packetBytes) ETV
attr interpolationmode none
attr source rxPkOk
attr title "packets received OK, vector(packetBytes)"
47	199819 3069 131 17308 0.016230721885 2.552665711874 112 103 103 11536 1188208
vector 48 MecSingleCell2.eNB.pppIf.ppp passedUpPk:vector(packetBytes) ETV
attr interpolationmode none
attr source packetSentToUpper
attr title "packets passed to higher layer, vector(packetBytes)"
48	202888 2957 131 17308 0.016230721885 2.552665711874 112 96 96 10752 1032192
vector 49 MecSingleCell2.eNB.udp rcvdPk:vector(packetBytes) ETV
attr interpolationmode none
attr source rcvdPk
attr title "packets received, vector(packetBytes)"
49	205845 2957 133 17310 0.016230721885 2.552665711874 112 76 76 8512 646912
vector 50 MecSingleCell2.eNB.udp passedUpPk:vector(count) ETV
attr interpolationmode none
attr title "packets passed up, vector(count)"
50	208802 2961 133 17310 0.016230721885 2.552665711874 112 1 112 6328 474600
vector 51 MecSingleCell2.eNB.lteNic.pdcpRrc receivedPacketFromUpperLayer:vector(packetBytes) ETV
attr interpolationmode none
attr source receivedPacketFromUpperLayer
51	211763 2957 136 17313 0.016230721885 2.552665711874 112 68 68 7616 517888
vector 52 MecSingleCell2.eNB.lteNic.pdcpRrc sentPacketToLowerLayer:vector(packetBytes) ETV
attr interpolationmode none
attr source sentPacketToLowerLayer
52	214720 2957 136 17313 0.016230721885 2.552665711874 112 69 69 7728 533232
vector 53 MecSingleCell2.eNB.lteNic.rlc.um receivedPacketFromUpperLayer:vector(packetBytes) ETV
attr interpolationmode none
attr source receivedPacketFromUpperLayer
53	217677 2957 137 17314 0.016230721885 2.552665711874 112 69 69 7728 533232
vector 54 MecSingleCell2.eNB.lteNic.mac receivedPacketFromUpperLayer:vector(packetBytes) ETV
attr interpolationmode none
attr source receivedPacketFromUpperLayer
54	220634 4906 139 17322 0.016230721885 2.553 224 69 71 15680 1097824
vector 55 MecSingleCell2.eNB.lteNic.mac measuredItbs:vector ETV
attr source measuredItbs
attr title "TBS index, vector"
attr unit ""
55	225540 1949 141 17318 0.017 2.553 112 26 26 2912 75712
vector 56 MecSingleCell2.eNB.lteNic.mac sentPacketToUpperLayer:vector(packetBytes) ETV
attr interpolationmode none
attr source sentPacketToUpperLayer
56	227489 1837 141 17318 0.017 2.553 112 0 0 0 0
vector 57 MecSingleCell2.eNB.lteNic.rlc.um sentPacketToLowerLayer:vector(packetBytes) ETV
attr interpolationmode none
attr source sentPacketToLowerLayer
57	229326 1949 143 17320 0.017 2.553 112 71 71 7952 564592
vector 58 MecSingleCell2.eNB.lteNic.mac sentPacketToLowerLayer:vector(packetBytes) ETV
attr interpolationmode none
attr source sentPacketToLowerLayer
58	231275 1967 147 17324 0.017 2.553 113 73 73 8249 602177
vector 59 MecSingleCell2.ue[0].lteNic.phy averageCqiDl:vector ETV
attr source averageCqiDl
attr title "Average Cqi reported in DL, vector"
attr unit cqi
59	233242 1965 154 17330 0.018 2.554 113 15 15 1695 25425
vector 60 MecSingleCell2.ue[0].lteNic.channelModel rcvdSinr:vector ETV
attr source rcvdSinr
attr title "SINR measured at packet reception, vector"
attr unit dB
60	235207 3420 154 17330 0.018 2.554 113 26.175040938157 48.364181669466 3565.4226312004 118339.98674681
vector 61 MecSingleCell2.ue[0].lteNic.mac receivedPacketFromLowerLayer:vector(packetBytes) ETV
attr interpolationmode none
attr source receivedPacketFromLowerLayer
61	238627 1965 155 17331 0.018 2.554 113 73 73 8249 602177
vector 62 MecSingleCell2.ue[0].lteNic.mac sentPacketToLowerLayer:vector(packetBytes) ETV
attr interpolationmode none
attr source sentPacketToLowerLayer
62	240592 1856 170 17344 0.021 2.557 113 0 0 0 0
vector 63 MecSingleCell2.eNB.lteNic.mac macDelayDl:vector ETV
attr source macDelayDl
attr title "Delay at the MAC layer UL, vector"
attr unit s
63	242448 2286 170 17344 0.021 2.557 112 0.004 0.01 0.454 0.001876
vector 64 MecSingleCell2.ue[0].lteNic.mac sentPacketToUpperLayer:vector(packetBytes) ETV
attr interpolationmode none
attr source sentPacketToUpperLayer
64	244734 1951 170 17344 0.021 2.557 112 71 71 7952 564592
vector 65 MecSingleCell2.ue[0].lteNic.rlc.um receivedPacketFromLowerLayer:vector(packetBytes) ETV
attr interpolationmode none
attr source receivedPacketFromLowerLayer
65	246685 1951 173 17347 0.021 2.557 112 71 71 7952 564592
vector 66 MecSingleCell2.ue[0].lteNic.rlc.um sentPacketToUpperLayer:vector(packetBytes) ETV
attr interpolationmode none
attr source sentPacketToUpperLayer
66	248636 1951 173 17347 0.021 2.557 112 69 69 7728 533232
vector 67 MecSingleCell2.ue[0].lteNic.pdcpRrc receivedPacketFromLowerLayer:vector(packetBytes) ETV
attr interpolationmode none
attr source receivedPacketFromLowerLayer
67	250587 1951 174 17348 0.021 2.557 112 69 69 7728 533232
vector 68 MecSingleCell2.ue[0].lteNic.pdcpRrc sentPacketToUpperLayer:vector(packetBytes) ETV
attr interpolationmode none
attr source sentPacketToUpperLayer
68	252538 1951 174 17348 0.021 2.557 112 68 68 7616 517888
vector 69 MecSingleCell2.ue[0].udp rcvdPk:vector(packetBytes) ETV
attr interpolationmode none
attr source rcvdPk
attr title "packets received, vector(packetBytes)"
69	254489 1951 177 17351 0.021 2.557 112 48 48 5376 258048
vector 70 MecSingleCell2.ue[0].udp passedUpPk:vector(count) ETV
attr interpolationmode none
attr title "packets passed up, vector(count)"
70	256440 1955 177 17351 0.021 2.557 112 1 112 6328 474600
vector 71 MecSingleCell2.ue[0].udpApp[0] voIPReceivedThroughput:vector ETV
attr source voIPReceivedThroughput
attr title "Throughput received at the application level, vector"
attr unit Bps
71	258395 3394 178 17352 0.021 2.557 112 1323.3724653148 1996.5576592083 190871.57232624 329555542.99935
vector 72 MecSingleCell2.ue[0].lteNic.mac harqErrorRate_1st_Dl:vector ETV
attr source harqErrorRate_1st_Dl
attr title "Harq Error Rate Dl, vector"
attr unit ""
72	261789 1839 185 17361 0.022 2.558 112 0 1 1 1
vector 73 MecSingleCell2.ue[0].lteNic.mac harqErrorRateDl:vector ETV
attr source harqErrorRateDl
attr title "Harq Error Rate Dl, vector"
attr unit ""
73	263628 1856 185 17361 0.022 2.558 113 0 1 1 1
vector 74 MecSingleCell2.ue[0].udpApp[0] voIPFrameDelay:vector ETV
attr source voIPFrameDelay
attr title "VoIP Frame Delay, vector"
attr unit s
74	265484 870 5084 5917 0.773 0.937 30 0.004542418012 0.004769630515 0.142861702947 0.0006803654436347
74	267145 2461 17408 17408 2.569 2.569 82 0.004334640526 0.010334640526 0.361440523132 0.0016287225824626
vector 75 MecSingleCell2.eNB.collector number_of_active_ue_dl_nongbr_cell ETV
75	266354 25 6355 13423 1 2 2 0 0 0 0
vector 76 MecSingleCell2.eNB.collector number_of_active_ue_ul_nongbr_cell ETV
76	266379 25 6355 13423 1 2 2 0 0 0 0
vector 77 MecSingleCell2.meHost.virtualisationInfrastructure.tcp "advertised window" ETV
77	266404 112 7729 7748 1.194809 1.195341 4 4149547883 4149548367 16598192500 6.8874998566764e+19
vector 78 MecSingleCell2.meHost.virtualisationInfrastructure.tcp "send window" ETV
78	266516 69 7729 7753 1.194809 1.195734 3 64706 65495 195696 12766056486
vector 79 MecSingleCell2.meHost.virtualisationInfrastructure.tcp tcpRcvQueueBytes ETV
79	266585 76 7729 7748 1.194809 1.195341 4 0 0 0 0
vector 80 MecSingleCell2.meHost.virtualisationInfrastructure.tcp "receive window" ETV
80	266661 69 7729 7748 1.194809 1.195341 3 65535 65535 196605 12884508675
vector 81 MecSingleCell2.meHost.virtualisationInfrastructure.tcp "sent ack" ETV
81	266730 84 7729 7748 1.194809 1.195341 3 4149482348 4149482832 12448448012 5.1654619302489e+19
vector 82 MecSingleCell2.meHost.virtualisationInfrastructure.tcp "unacked bytes" ETV
82	266814 59 7739 7753 1.195251 1.195734 3 0 789 789 622521
vector 83 MecSingleCell2.meHost.virtualisationInfrastructure.tcp "rcvd dupAcks" ETV
83	266873 38 7743 7753 1.195341 1.195734 2 0 0 0 0
vector 84 MecSingleCell2.meHost.virtualisationInfrastructure.tcp "sent seq" ETV
84	266911 24 7748 7748 1.195341 1.195341 1 298703 298703 298703 89223482209
vector 85 MecSingleCell2.meHost.virtualisationInfrastructure.tcp "measured RTT" ETV
85	266935 26 7753 7753 1.195734 1.195734 1 0.000393 0.000393 0.000393 1.54449e-07
vector 86 MecSingleCell2.meHost.virtualisationInfrastructure.tcp "smoothed RTT" ETV
86	266961 28 7753 7753 1.195734 1.195734 1 4.9125e-05 4.9125e-05 4.9125e-05 2.413265625e-09
vector 87 MecSingleCell2.meHost.virtualisationInfrastructure.tcp RTTVAR ETV
87	266989 29 7753 7753 1.195734 1.195734 1 0.656299125 0.656299125 0.656299125 0.43072854147577
vector 88 MecSingleCell2.meHost.virtualisationInfrastructure.tcp RTO ETV
88	267018 29 7753 7753 1.195734 1.195734 1 2.625245625 2.625245625 2.625245625 6.8919145915816
vector 89 MecSingleCell2.meHost.virtualisationInfrastructure.tcp cwnd ETV
89	267047 22 7753 7753 1.195734 1.195734 1 2904 2904 2904 8433216
vector 90 MecSingleCell2.ue[0].ueCollector ul_nongbr_delay_ue ETV
90	267069 29 9893 16941 1.5 2.5 2 0 0 0 0
vector 91 MecSingleCell2.ue[0].lteNic.mac harqErrorRate_2nd_Dl:vector ETV
attr source harqErrorRate_2nd_Dl
attr title "Harq Error Rate Dl, vector"
attr unit ""
91	267098 17 12743 12743 1.904 1.904 1 0 0 0 0
vector 92 MecSingleCell2.ue[0].ueCollector ul_nongbr_data_volume_ue ETV
92	267115 15 16942 16942 2.5 2.5 1 0 0 0 0
vector 93 MecSingleCell2.ue[0].ueCollector dl_nongbr_data_volume_ue ETV
93	267130 15 16942 16942 2.5 2.5 1 0 0 0 0
