file 4656 1609189666                                            
version 2
run VoIP-DL-0-20201228-22:07:20-24111
attr configname VoIP-DL
attr datetime 20201228-22:07:20
attr experiment VoIP-DL
attr inifile omnetpp.ini
attr iterationvars $numUEs=2
attr iterationvarsf numUEs=2-
attr measurement $numUEs=2
attr network lte.simulations.test_mec_2.MecSingleCell2
attr processid 24111
attr repetition 0
attr replication #0
attr resultdir 3ue
attr runnumber 0
attr seedset 0
itervar numUEs 2
param *.ipConfigurator.dumpAddresses true
param **.mac.schedulingDisciplineDl "\"MAXCI\""
param **.mac.schedulingDisciplineUl "\"MAXCI\""
param *.ue[*].numUdpApps 1
param *.numUes 2
param *.server.numUdpApps 2
param **.ue[*].macCellId 1
param **.ue[*].masterId 1
param *.ue[*].mobility.acceleration 0
param *.ue[*].mobility.angle 90deg
param *.ue[*].mobility.constraintAreaMaxX 1000m
param *.ue[*].mobility.constraintAreaMaxY 1000m
param *.ue[*].mobility.constraintAreaMinX 0m
param *.ue[*].mobility.constraintAreaMinY 0m
param *.ue[*].mobility.initFromDisplayString false
param *.ue[0].mobility.initialX 210m
param *.ue[0].mobility.initialY 180m
param *.ue[1].mobility.initialX 210m
param *.ue[1].mobility.initialY 180m
param *.eNodeB.mobility.initialX 300m
param *.eNodeB.mobility.initialY 300m
param *.ue[*].mobility.initialZ 0
param *.ue[*].mobility.speed 10mps
param *.ue[*].mobilityType "\"LinearMobility\""
param *.ue[*].udpApp[0].typename "\"VoIPReceiver\""
param *.ue[*].udpApp[0].localPort 3000
param *.ue[*].udpApp[0].serverAddress "\"server\""
param *.server.udpApp[*].PacketSize 40
param *.server.udpApp[*].destAddress "\"ue[\"+string(ancestorIndex(0))+\"]\""
param *.server.udpApp[*].destAddresses "\"\""
param *.server.udpApp[*].destPort 3000
param *.server.udpApp[*].localPort 3088+ancestorIndex(0)
param *.server.udpApp[*].typename "\"VoIPSender\""
param *.server.udpApp[*].startTime uniform(0s,0.02s)
param **.meHost.virtualisationInfrastructure.ext[0].filterString "\"ip and dst host 195.168\""
param **.meHost.virtualisationInfrastructure.ext[0].device "\"lo\""
param **.ext[0].mtu 1500B
param **.coreDebug false
param **.routingRecorder.enabled false
param *.playgroundSizeX 1100m
param *.playgroundSizeY 800m
param *.playgroundSizeZ 50m
param **.channelControl.pMax 10W
param **.channelControl.alpha 1.0
param **.channelControl.carrierFrequency 2100e+6Hz
param *.ue[*].lteNic.phy.dynamicCellAssociation true
param **.ue[*].masterId 1
param **.ue[*].macCellId 1
param **.eNodeB1.macCellId 1
param **.eNodeB1.macNodeId 1
param **.eNodeB2.macCellId 2
param **.eNodeB2.macNodeId 2
param **.rbAllocationType "\"localized\""
param **.feedbackType "\"ALLBANDS\""
param **.feedbackGeneratorType "\"IDEAL\""
param **.maxHarqRtx 3
param **.cellInfo.ruRange 50
param **.cellInfo.ruTxPower "\"50,50,50;\""
param **.cellInfo.antennaCws "\"2;\""
param **.cellInfo.numRbDl 25
param **.cellInfo.numRbUl 25
param **.numBands 25
param *.ue[*].lteNic.phy.enableHandover true
param *.eNodeB*.lteNic.phy.enableHandover true
param *.visualizer.interfaceTableVisualizer.displayInterfaceTables true
param *.visualizer.interfaceTableVisualizer.nodeFilter "\"not (*switch* or *Switch* or *AP*)\""
param **.displayAddresses true
param **.meHost.virtualisationInfrastructure.numTcpApps 2
param **.meHost.virtualisationInfrastructure.tcpApp[0].typename "\"LocationService\""
param **.meHost.virtualisationInfrastructure.tcpApp[0].active true
param **.meHost.virtualisationInfrastructure.tcpApp[0].localAddress "\"195.168.5.1\""
param **.meHost.virtualisationInfrastructure.tcpApp[0].localPort 10020
param **.meHost.virtualisationInfrastructure.tcpApp[0].subscriptionServiceTime 10
param **.meHost.virtualisationInfrastructure.tcpApp[1].typename "\"MeAppSubscription\""
param **.meHost.virtualisationInfrastructure.tcpApp[1].active true
param **.meHost.virtualisationInfrastructure.tcpApp[1].connectAddress "\"195.168.5.1\""
param **.meHost.virtualisationInfrastructure.tcpApp[1].connectPort 10020
param **.meHost.virtualisationInfrastructure.tcpApp[*].dataTransferMode "\"bytestream\""
param **.meHost.virtualisationInfrastructure.forwarding true
param **.tcp.advertisedWindow 65535
param **.tcp.delayedAcksEnabled false
param **.tcp.nagleEnabled true
param **.tcp.limitedTransmitEnabled false
param **.tcp.increasedIWEnabled false
param **.tcp.sackSupport true
param **.tcp.windowScalingSupport false
param **.tcp.timestampSupport false
param **.tcp.mss 1452
param **.tcp.tcpAlgorithmClass "\"TCPReno\""
param **.tcp.recordStats true
param **.numPcapRecorders 1
param **.meHost.virtualisationInfrastructure.pcapRecorder[0].pcapFile "\"meHost.pcap\""
param **.eNodeB*.meHost "\"meHost\""
param **.eNodeB*.meHostExtConn "\"192.168.1.0/24\""

